  
       XFOIL         Version 6.99
  
 Calculated polar for: NACA 3936                                       
  
 1 1 Reynolds number fixed          Mach number fixed         
  
 xtrf =   1.000 (top)        1.000 (bottom)  
 Mach =   0.000     Re =     0.452 e 6     Ncrit =   9.000
  
   alpha    CL        CD       CDp       CM     Top_Xtr  Bot_Xtr
  ------ -------- --------- --------- -------- -------- --------
 -25.000  -0.5629   0.24871   0.24498  -0.0063   1.0000   0.0856
 -24.500  -0.5484   0.24457   0.24086  -0.0089   1.0000   0.0879
 -23.500  -0.5527   0.22891   0.22516  -0.0161   1.0000   0.0965
 -23.000  -0.5339   0.22595   0.22222  -0.0179   1.0000   0.0983
 -22.500  -0.5749   0.21066   0.20686  -0.0233   1.0000   0.1077
 -22.000  -0.5532   0.20855   0.20479  -0.0245   1.0000   0.1092
 -21.500  -0.6154   0.19074   0.18690  -0.0303   1.0000   0.1212
 -21.000  -0.5932   0.18881   0.18500  -0.0311   1.0000   0.1228
