  
       XFOIL         Version 6.99
  
 Calculated polar for: NACA 4240                                       
  
 1 1 Reynolds number fixed          Mach number fixed         
  
 xtrf =   1.000 (top)        1.000 (bottom)  
 Mach =   0.000     Re =     0.452 e 6     Ncrit =   9.000
  
   alpha    CL        CD       CDp       CM     Top_Xtr  Bot_Xtr
  ------ -------- --------- --------- -------- -------- --------
 -25.000  -0.2007   0.22834   0.22497  -0.0441   0.9953   0.0771
 -24.500  -0.1527   0.22455   0.22120  -0.0504   0.9923   0.0760
 -24.000  -0.1265   0.21634   0.21297  -0.0586   0.9892   0.0749
 -23.500  -0.1587   0.19691   0.19342  -0.0699   0.9863   0.0791
 -23.000  -0.1077   0.19370   0.19023  -0.0774   0.9839   0.0799
 -22.500  -0.0640   0.18866   0.18521  -0.0855   0.9818   0.0812
