  
       XFOIL         Version 6.99
  
 Calculated polar for: NACA 5111                                       
  
 1 1 Reynolds number fixed          Mach number fixed         
  
 xtrf =   1.000 (top)        1.000 (bottom)  
 Mach =   0.000     Re =     0.452 e 6     Ncrit =   9.000
  
   alpha    CL        CD       CDp       CM     Top_Xtr  Bot_Xtr
  ------ -------- --------- --------- -------- -------- --------
 -24.000  -0.3438   0.17630   0.17404   0.0088   1.0000   0.0055
 -23.500  -0.3301   0.17098   0.16872   0.0058   1.0000   0.0055
 -23.000  -0.3163   0.16572   0.16345   0.0030   1.0000   0.0055
 -22.500  -0.3022   0.16037   0.15812   0.0001   1.0000   0.0055
 -22.000  -0.2879   0.15506   0.15281  -0.0027   1.0000   0.0056
 -21.500  -0.2737   0.14988   0.14764  -0.0054   1.0000   0.0056
 -21.000  -0.2592   0.14469   0.14246  -0.0081   1.0000   0.0056
