  
       XFOIL         Version 6.99
  
 Calculated polar for: NACA 3732                                       
  
 1 1 Reynolds number fixed          Mach number fixed         
  
 xtrf =   1.000 (top)        1.000 (bottom)  
 Mach =   0.000     Re =     0.452 e 6     Ncrit =   9.000
  
   alpha    CL        CD       CDp       CM     Top_Xtr  Bot_Xtr
  ------ -------- --------- --------- -------- -------- --------
 -25.000  -0.4663   0.23945   0.23598  -0.0309   0.9981   0.0698
 -24.500  -0.4483   0.23282   0.22933  -0.0370   0.9965   0.0721
 -24.000  -0.4599   0.21876   0.21520  -0.0457   0.9944   0.0779
 -23.500  -0.4240   0.21594   0.21237  -0.0509   0.9924   0.0790
 -23.000  -0.4038   0.20978   0.20619  -0.0569   0.9906   0.0817
 -22.500  -0.4211   0.19580   0.19215  -0.0653   0.9889   0.0887
 -22.000  -0.3867   0.19237   0.18871  -0.0706   0.9875   0.0903
 -21.500  -0.4337   0.17351   0.16974  -0.0802   0.9862   0.1010
